*SPEF "IEEE 1481-1998"
*DESIGN "dvsd_4bit_binary_counter"
*DATE "Fri Aug 20 11:17:15 2021"
*VENDOR "AUC CSCE Department"
*PROGRAM "SPEF Extractor"
*VERSION "1.0"
*DESIGN_FLOW "PIN_CAP NONE"
*DIVIDER /
*DELIMITER :
*BUS_DELIMITER []
*T_UNIT 1.00000 NS
*C_UNIT 1.00000 PF
*R_UNIT 1.00000 OHM
*L_UNIT 1.00000 HENRY


*NAME_MAP
*0 _00_
*1 _01_
*2 _02_
*3 _03_
*4 _04_
*5 _05_
*6 _06_
*7 _07_
*8 _08_
*9 _09_
*10 _10_
*11 _11_
*12 _12_
*13 _13_
*14 _14_
*15 _15_
*16 _16_
*17 _17_
*18 _18_
*19 _19_
*20 _20_
*21 _21_
*22 _22_
*23 clk
*24 clknet_0_clk
*25 clknet_1_0__leaf_clk
*26 clknet_1_1__leaf_clk
*27 net1
*28 net2
*29 net3
*30 net4
*31 net5
*32 net6
*33 out[0]
*34 out[1]
*35 out[2]
*36 out[3]
*37 reset
*38 updown

*D_NET *0 0.00152157568012
*CONN
*I _42_:A0 I
*I _27_:A I
*I _26_:Y O
*CAP
0 _42_:A0 0.00055710352544
1 *0:2 0.0004078111222
2 _26_:Y 0.00044015821855999997
3 *0:5 0.00011650281392
4 *0:1 0
5 _27_:A 0
6 *0:4 0
7 *0:7 0
*RES
0 _42_:A0 *0:1 5.75
1 *0:2 *0:3 4.553571428571428
2 _26_:Y *0:4 4.517857142857142
3 *0:5 *0:6 1.2142857142857142
4 _42_:A0 _42_:A0 0
5 *0:1 *0:3 0
6 _27_:A _27_:A 0
7 _27_:A *0:2 0
8 _26_:Y _26_:Y 0
9 *0:4 *0:5 0
10 *0:7 *0:6 0
*END

*D_NET *1 0.0007420390468400001
*CONN
*I _42_:A1 I
*I _27_:X O
*CAP
8 *1:1 0.00030188082828000006
9 _42_:A1 0.00044015821855999997
10 _27_:X 0
11 *1:3 0
*RES
11 *1:1 *1:2 3.339285714285714
12 _42_:A1 *1:3 4.517857142857142
13 _27_:X _27_:X 0
14 _27_:X *1:1 0
15 *1:3 *1:2 0
16 _42_:A1 _42_:A1 0
*END

*D_NET *2 0.0006485092024800001
*CONN
*I _43_:A0 I
*I _31_:A I
*I _30_:Y O
*CAP
12 _30_:Y 0.00012830406688
13 *2:2 0.00030188082828000006
14 *2:4 0.00012830406688
15 *2:5 9.002024044000002e-05
16 *2:1 0
17 _43_:A0 0
18 _31_:A 0
*RES
17 _30_:Y *2:1 1.232142857142857
18 *2:2 *2:3 3.339285714285714
19 *2:4 _31_:A 1.232142857142857
20 *2:5 *2:2 0.9107142857142857
21 _30_:Y _30_:Y 0
22 *2:1 *2:2 0
23 _43_:A0 _43_:A0 0
24 _43_:A0 *2:3 0
25 _31_:A _31_:A 0
26 *2:4 *2:5 0
*END

*D_NET *3 0.00048315004212
*CONN
*I _43_:A1 I
*I _31_:Y O
*CAP
19 *3:1 0.00035484597524
20 _43_:A1 0.00012830406688
21 _31_:Y 0
22 *3:3 0
*RES
27 *3:1 *3:2 3.946428571428571
28 _43_:A1 *3:3 1.232142857142857
29 _31_:Y _31_:Y 0
30 _31_:Y *3:1 0
31 *3:3 *3:2 0
32 _43_:A1 _43_:A1 0
*END

*D_NET *4 0.0003621946806399999
*CONN
*I _44_:A0 I
*I _33_:X O
*CAP
23 _44_:A0 0.0003621946806399999
24 _33_:X 0
*RES
33 _44_:A0 _33_:X 3.6964285714285707
34 _44_:A0 _44_:A0 0
35 _33_:X _33_:X 0
*END

*D_NET *5 0.00025730607628
*CONN
*I _44_:A1 I
*I _36_:X O
*CAP
25 *5:1 9.002024044000002e-05
26 _44_:A1 0.00016728583584
27 _36_:X 0
28 *5:3 0
*RES
36 *5:1 *5:2 0.9107142857142857
37 _44_:A1 *5:3 1.6428571428571428
38 _36_:X _36_:X 0
39 _36_:X *5:1 0
40 *5:3 *5:2 0
41 _44_:A1 _44_:A1 0
*END

*D_NET *6 0.00021832430732
*CONN
*I _45_:A0 I
*I _38_:X O
*CAP
29 _45_:A0 0.00012830406688
30 *6:2 9.002024044000002e-05
31 *6:1 0
32 _38_:X 0
*RES
42 _45_:A0 *6:1 1.232142857142857
43 *6:2 *6:3 0.9107142857142857
44 _45_:A0 _45_:A0 0
45 *6:1 *6:2 0
46 _38_:X _38_:X 0
47 _38_:X *6:3 0
*END

*D_NET *7 0.00037870393071999997
*CONN
*I _45_:A1 I
*I _40_:X O
*CAP
33 *7:1 0.00032836340175999997
34 _40_:X 5.034052896000001e-05
35 _45_:A1 0
36 *7:3 0
*RES
48 *7:1 *7:2 3.642857142857143
49 _40_:X *7:3 0.4107142857142857
50 _45_:A1 _45_:A1 0
51 _45_:A1 *7:1 0
52 *7:3 *7:2 0
53 _40_:X _40_:X 0
*END

*D_NET *8 0.00037870393071999997
*CONN
*I _42_:X O
*I _25_:B_N I
*CAP
37 *8:1 5.034052896000001e-05
38 *8:2 0.00032836340175999997
39 _42_:X 0
40 _25_:B_N 0
*RES
54 *8:1 _42_:X 0.4107142857142857
55 *8:2 *8:3 3.642857142857143
56 _42_:X _42_:X 0
57 *8:1 *8:2 0
58 _25_:B_N _25_:B_N 0
59 _25_:B_N *8:3 0
*END

*D_NET *9 0.00089174740432
*CONN
*I _43_:X O
*I _24_:B_N I
*CAP
41 _43_:X 8.932229792e-05
42 *9:2 0.00075208457744
43 _24_:B_N 5.034052896000001e-05
44 *9:1 0
45 *9:4 0
*RES
60 _43_:X *9:1 0.8214285714285714
61 *9:2 *9:3 8.499999999999998
62 _24_:B_N *9:4 0.4107142857142857
63 _43_:X _43_:X 0
64 *9:1 *9:2 0
65 *9:4 *9:3 0
66 _24_:B_N _24_:B_N 0
*END

*D_NET *10 0.00036338428352000003
*CONN
*I _44_:X O
*I _23_:B_N I
*CAP
46 *10:1 0.00036338428352000003
47 _23_:B_N 0
48 _44_:X 0
*RES
67 *10:1 _23_:B_N 0.30357142857142855
68 *10:1 _44_:X 3.2857142857142856
69 _23_:B_N _23_:B_N 0
70 _44_:X _44_:X 0
*END

*D_NET *11 0.00059056451856
*CONN
*I _45_:X O
*I _41_:B_N I
*CAP
49 *11:1 5.034052896000001e-05
50 *11:2 0.0005402239896
51 _45_:X 0
52 _41_:B_N 0
*RES
71 *11:1 _45_:X 0.4107142857142857
72 *11:2 *11:3 6.07142857142857
73 _45_:X _45_:X 0
74 *11:1 *11:2 0
75 _41_:B_N _41_:B_N 0
76 _41_:B_N *11:3 0
*END

*D_NET *12 0.00024747987924
*CONN
*I _46_:D I
*I _25_:Y O
*CAP
53 *12:1 5.415396288e-05
54 *12:2 0.00014298538739999998
55 _25_:Y 5.034052896000001e-05
56 _46_:D 0
*RES
77 *12:1 _46_:D 0.4508928571428571
78 *12:2 *12:3 1.5178571428571426
79 _25_:Y _25_:Y 0.4107142857142857
80 _46_:D _46_:D 0
81 *12:1 *12:2 0
82 _25_:Y *12:3 0
83 _25_:Y _25_:Y 0
*END

*D_NET *13 0.00047332384508
*CONN
*I _47_:D I
*I _24_:Y O
*CAP
57 _47_:D 1.5172193919999998e-05
58 *13:1 0.0004078111222
59 _24_:Y 5.034052896000001e-05
*RES
84 _47_:D _47_:D 0.040178571428571425
85 *13:1 *13:2 4.553571428571428
86 _24_:Y _24_:Y 0.4107142857142857
87 _47_:D _47_:D 0
88 _47_:D *13:1 0
89 _24_:Y *13:2 0
90 _24_:Y _24_:Y 0
*END

*D_NET *14 0.00042988952856000005
*CONN
*I _48_:D I
*I _23_:Y O
*CAP
60 _23_:Y 8.932229792e-05
61 *14:2 0.00016946796088000002
62 _48_:D 0.00017109926975999998
63 *14:1 0
64 *14:4 0
*RES
91 _23_:Y *14:1 0.8214285714285714
92 *14:2 *14:3 1.8214285714285714
93 _48_:D *14:4 1.6830357142857142
94 _48_:D _48_:D 0
95 _23_:Y _23_:Y 0
96 *14:1 *14:2 0
97 *14:4 *14:3 0
*END

*D_NET *15 0.000470011733
*CONN
*I _49_:D I
*I _41_:Y O
*CAP
65 _49_:D 0.0003270263456
66 *15:2 0.00014298538739999998
67 *15:1 0
68 _41_:Y 0
*RES
98 _49_:D *15:1 3.3258928571428568
99 *15:2 *15:3 1.5178571428571426
100 _49_:D _49_:D 0
101 *15:1 *15:2 0
102 _41_:Y _41_:Y 0
103 _41_:Y *15:3 0
*END

*D_NET *16 0.00101629686616
*CONN
*I _33_:A2 I
*I _32_:B I
*I _30_:A I
*I _28_:X O
*CAP
69 _33_:A2 0.0002062676048
70 *16:2 0.00014298538739999998
71 *16:4 0.00046077626916000004
72 _32_:B 0.0002062676048
73 *16:1 0
74 _28_:X 0
75 _30_:A 0
*RES
104 _33_:A2 *16:1 2.0535714285714284
105 *16:2 *16:3 1.5178571428571426
106 *16:4 *16:2 5.160714285714286
107 _32_:B _30_:A 2.0535714285714284
108 _33_:A2 _33_:A2 0
109 *16:1 *16:2 0
110 _28_:X _28_:X 0
111 _28_:X *16:3 0
112 _32_:B _32_:B 0
113 _32_:B *16:4 0
114 _30_:A _30_:A 0
*END

*D_NET *17 0.00147794511876
*CONN
*I _39_:A2 I
*I _36_:A2 I
*I _35_:A I
*I _30_:B I
*I _29_:Y O
*CAP
76 *17:1 0.00016946796088000002
77 _36_:A2 0.0005181217564799999
78 *17:3 9.002024044000002e-05
79 *17:5 0.00016728583584
80 _35_:A 4.017137184e-05
81 *17:6 0.0003621946806399999
82 *17:7 4.017137184e-05
83 *17:8 5.034052896000001e-05
84 _39_:A2 4.017137184e-05
85 _30_:B 0
86 _29_:Y 0
*RES
115 *17:1 *17:2 1.8214285714285714
116 _36_:A2 _29_:Y 5.339285714285714
117 *17:3 *17:4 0.9107142857142857
118 *17:5 _36_:A2 1.6428571428571428
119 _35_:A *17:6 0.30357142857142855
120 *17:6 *17:7 3.6964285714285707
121 *17:7 *17:8 0.30357142857142855
122 *17:8 _39_:A2 0.4107142857142857
123 _39_:A2 _39_:A2 0.30357142857142855
124 _30_:B _30_:B 0
125 _30_:B *17:1 0
126 _29_:Y _29_:Y 0
127 _29_:Y *17:2 0
128 _36_:A2 _36_:A2 0
129 _39_:A2 _39_:A2 0
130 _39_:A2 *17:3 0
131 *17:5 *17:4 0
132 _35_:A _35_:A 0
*END

*D_NET *18 0.0016395365874000002
*CONN
*I _38_:B2 I
*I _38_:A2_N I
*I _33_:B1_N I
*I _32_:X O
*CAP
87 *18:1 0.00023626981952
88 *18:2 0.0002062676048
89 *18:3 0.00043429369568000003
90 _38_:A2_N 0.00032440251456
91 *18:6 0.00034160468850000003
92 *18:8 9.669826434000002e-05
93 _38_:B2 0
94 _33_:B1_N 0
95 *18:5 0
96 _32_:X 0
*RES
133 *18:1 _38_:A2_N 1.6428571428571428
134 *18:1 _38_:B2 0.6071428571428571
135 *18:2 _33_:B1_N 2.0535714285714284
136 *18:3 *18:4 4.857142857142857
137 _38_:A2_N *18:5 2.875
138 _38_:A2_N _38_:A2_N 0.30357142857142855
139 *18:6 *18:7 3.7946428571428568
140 *18:8 *18:7 0.4107142857142857
141 *18:8 *18:3 0.45535714285714285
142 _38_:A2_N _38_:A2_N 0
143 _38_:B2 _38_:B2 0
144 _33_:B1_N _33_:B1_N 0
145 *18:2 *18:3 0
146 *18:5 *18:4 0
147 _32_:X _32_:X 0
148 _32_:X *18:6 0
*END

*D_NET *19 0.0005591869045600001
*CONN
*I _39_:A1 I
*I _36_:A1 I
*I _34_:Y O
*CAP
97 _39_:A1 0.00016728583584
98 *19:2 0.00022243310784000002
99 *19:4 0.00016946796088000002
100 *19:1 0
101 _36_:A1 0
102 _34_:Y 0
*RES
149 _39_:A1 *19:1 1.6428571428571428
150 *19:2 *19:3 2.4285714285714284
151 *19:4 *19:5 1.8214285714285714
152 _39_:A1 _39_:A1 0
153 *19:1 *19:2 0
154 _36_:A1 _36_:A1 0
155 _36_:A1 *19:3 0
156 _34_:Y _34_:Y 0
157 _34_:Y *19:4 0
158 _39_:A1 *19:5 0
*END

*D_NET *20 0.0018956438209200002
*CONN
*I _40_:A2 I
*I _36_:B2 I
*I _35_:Y O
*CAP
103 _36_:B2 5.034052896000001e-05
104 *20:2 0.0008580148713600001
105 _40_:A2 0.00012830406688
106 _35_:Y 0.00055710352544
107 *20:6 0.00030188082828000006
108 *20:1 0
109 *20:4 0
110 *20:5 0
*RES
159 _36_:B2 *20:1 0.4107142857142857
160 *20:2 *20:3 9.714285714285714
161 _40_:A2 *20:4 1.232142857142857
162 _35_:Y *20:5 5.75
163 *20:6 *20:2 3.339285714285714
164 _36_:B2 _36_:B2 0
165 *20:1 *20:2 0
166 *20:4 *20:3 0
167 _40_:A2 _40_:A2 0
168 _35_:Y _35_:Y 0
169 *20:5 *20:6 0
*END

*D_NET *21 0.0010097113609600001
*CONN
*I _40_:A3 I
*I _38_:B1 I
*I _38_:A1_N I
*I _37_:Y O
*CAP
111 _37_:Y 0.0004791399875199999
112 *21:1 0.00016974658335999998
113 _38_:B1 8.932229792e-05
114 *21:3 0.00022243310784000002
115 _38_:A1_N 4.906938432e-05
116 _40_:A3 0
117 *21:5 0
*RES
170 _37_:Y _38_:B1 4.928571428571428
171 *21:1 _38_:A1_N 1.2455357142857142
172 *21:1 *21:2 0.30357142857142855
173 _38_:B1 *21:2 0.8214285714285714
174 *21:3 *21:4 2.4285714285714284
175 _38_:A1_N *21:5 0.39732142857142855
176 _38_:B1 _38_:B1 0
177 _37_:Y _37_:Y 0
178 _38_:A1_N _38_:A1_N 0
179 _40_:A3 _40_:A3 0
180 _40_:A3 *21:4 0
181 *21:5 *21:3 0
*END

*D_NET *22 0.0013416074064400002
*CONN
*I _40_:B1 I
*I _39_:X O
*CAP
118 _39_:X 0.00024524937376
119 *22:2 0.0010963580326800002
120 *22:1 0
121 _40_:B1 0
*RES
182 _39_:X *22:1 2.464285714285714
183 *22:2 *22:3 12.44642857142857
184 _39_:X _39_:X 0
185 *22:1 *22:2 0
186 _40_:B1 _40_:B1 0
187 _40_:B1 *22:3 0
*END

*D_NET *23 0.0014877531640799997
*CONN
*P clk I
*I clkbuf_0_clk:A I
*CAP
122 *23:1 0.00010326152718000001
123 *23:3 0.0013844916368999996
124 clkbuf_0_clk:A 0
125 *23:2 0
*RES
188 *23:1 *23:2 1.0624999999999998
189 *23:3 *23:4 2.4863
190 clkbuf_0_clk:A clkbuf_0_clk:A 0
191 clkbuf_0_clk:A *23:1 0
192 *23:2 *23:3 0
*END

*D_NET *24 0.0022950910868799997
*CONN
*I clkbuf_1_1__f_clk:A I
*I clkbuf_1_0__f_clk:A I
*I clkbuf_0_clk:X O
*CAP
126 clkbuf_1_0__f_clk:A 0.00149266598048
127 *24:1 5.034052896000001e-05
128 *24:2 0.00075208457744
129 clkbuf_1_1__f_clk:A 0
130 clkbuf_0_clk:X 0
131 *24:4 0
*RES
193 clkbuf_1_0__f_clk:A clkbuf_1_1__f_clk:A 15.607142857142856
194 *24:1 clkbuf_0_clk:X 0.4107142857142857
195 *24:2 *24:3 8.499999999999998
196 clkbuf_1_1__f_clk:A clkbuf_1_1__f_clk:A 0
197 clkbuf_1_0__f_clk:A clkbuf_1_0__f_clk:A 0
198 clkbuf_0_clk:X clkbuf_0_clk:X 0
199 *24:1 *24:3 0
200 *24:4 *24:2 0
*END

*D_NET *25 0.0013861691559600002
*CONN
*I _48_:CLK I
*I _49_:CLK I
*I clkbuf_1_0__f_clk:X O
*CAP
132 _48_:CLK 4.017137184e-05
133 *25:2 0.0004078111222
134 clkbuf_1_0__f_clk:X 5.034052896000001e-05
135 *25:5 0.00023626981952
136 *25:3 0.00032836340175999997
137 *25:1 0.00032321291168
138 *25:8 0
139 *25:4 0
140 _49_:CLK 0
141 *25:6 0
*RES
201 _48_:CLK *25:1 0.30357142857142855
202 *25:2 *25:3 4.553571428571428
203 clkbuf_1_0__f_clk:X *25:4 0.4107142857142857
204 *25:5 _49_:CLK 0.6071428571428571
205 *25:5 *25:6 1.6428571428571428
206 *25:3 *25:7 3.642857142857143
207 *25:1 *25:8 3.2857142857142856
208 _48_:CLK _48_:CLK 0
209 *25:8 *25:3 0
210 *25:4 *25:2 0
211 clkbuf_1_0__f_clk:X clkbuf_1_0__f_clk:X 0
212 _49_:CLK _49_:CLK 0
213 *25:6 *25:7 0
*END

*D_NET *26 0.00172932746744
*CONN
*I _46_:CLK I
*I _47_:CLK I
*I clkbuf_1_1__f_clk:X O
*CAP
142 _46_:CLK 0.00016728583584
143 *26:2 0.00035484597524
144 *26:4 0.00032321291168
145 _47_:CLK 0.00063506706336
146 *26:3 0.00024891568132000004
147 *26:1 0
148 clkbuf_1_1__f_clk:X 0
149 *26:5 0
*RES
214 _46_:CLK *26:1 1.6428571428571428
215 *26:2 *26:3 3.946428571428571
216 *26:4 clkbuf_1_1__f_clk:X 3.2857142857142856
217 _47_:CLK *26:5 6.571428571428571
218 *26:3 *26:6 2.7321428571428568
219 _46_:CLK _46_:CLK 0
220 *26:1 *26:3 0
221 *26:4 *26:2 0
222 clkbuf_1_1__f_clk:X clkbuf_1_1__f_clk:X 0
223 _47_:CLK _47_:CLK 0
224 *26:5 *26:6 0
*END

*D_NET *27 0.00458169303288
*CONN
*I input1:X O
*I _23_:A I
*I _24_:A I
*I _25_:A I
*I _41_:A I
*CAP
150 _24_:A 0.0011808118288000001
151 *27:2 0.00059318913656
152 *27:4 0.00043429369568000003
153 _41_:A 0.00110284829088
154 _23_:A 0.00012830406688
155 *27:7 0.0008580148713600001
156 *27:9 0.00028423114272
157 *27:1 0
158 input1:X 0
159 _25_:A 0
160 *27:10 0
161 *27:6 0
*RES
225 _24_:A *27:1 12.321428571428571
226 *27:2 *27:3 6.678571428571428
227 *27:4 *27:5 4.857142857142857
228 _41_:A _24_:A 11.5
229 _23_:A *27:6 1.232142857142857
230 *27:7 *27:8 9.714285714285714
231 *27:9 _41_:A 2.875
232 _24_:A _24_:A 0
233 *27:1 *27:2 0
234 input1:X input1:X 0
235 input1:X *27:3 0
236 _25_:A _25_:A 0
237 _25_:A *27:4 0
238 *27:10 *27:5 0
239 _41_:A _41_:A 0
240 _23_:A _23_:A 0
241 *27:6 *27:7 0
242 *27:9 *27:8 0
*END

*D_NET *28 0.004803452485
*CONN
*I input2:X O
*I _42_:S I
*I _43_:S I
*I _44_:S I
*I _45_:S I
*CAP
162 _42_:S 0.0009469212150399999
163 _43_:S 0.0005582931283199999
164 _44_:S 4.017137184e-05
165 *28:2 0.000985902984
166 *28:4 0.00016946796088000002
167 *28:6 0.00210269582492
168 input2:X 0
169 *28:1 0
170 _45_:S 0
171 *28:8 0
*RES
243 _42_:S *28:1 9.857142857142856
244 _43_:S _42_:S 5.339285714285714
245 _44_:S *28:2 0.30357142857142855
246 *28:2 *28:3 10.267857142857142
247 _43_:S *28:3 0.30357142857142855
248 *28:4 *28:5 1.8214285714285714
249 *28:6 *28:7 23.982142857142854
250 input2:X input2:X 0
251 input2:X *28:6 0
252 _42_:S _42_:S 0
253 *28:1 *28:7 0
254 _43_:S _43_:S 0
255 _44_:S _44_:S 0
256 _45_:S _45_:S 0
257 _45_:S *28:5 0
258 *28:8 *28:4 0
*END

*D_NET *29 0.0034842657670000002
*CONN
*I output3:A I
*I _26_:A I
*I _28_:A I
*I _29_:A I
*I _46_:Q O
*CAP
172 output3:A 0.00012830406688
173 *29:2 0.0004023660524799999
174 *29:3 4.017137184e-05
175 _46_:Q 0.00014813712448000002
176 *29:5 0.00038132854871999994
177 _28_:A 0.00044015821855999997
178 *29:7 0.0019438003840400002
179 *29:1 0
180 _26_:A 0
181 _29_:A 0
182 *29:4 0
183 *29:9 0
*RES
259 output3:A *29:1 1.232142857142857
260 *29:2 _29_:A 0.30357142857142855
261 *29:2 *29:3 3.6964285714285707
262 *29:3 _26_:A 0.30357142857142855
263 _46_:Q *29:4 0.4107142857142857
264 *29:5 *29:6 4.249999999999999
265 _28_:A _46_:Q 4.517857142857142
266 _46_:Q _46_:Q 0.9107142857142857
267 *29:7 *29:8 22.160714285714285
268 *29:1 *29:7 0
269 output3:A output3:A 0
270 _26_:A _26_:A 0
271 _26_:A *29:8 0
272 _29_:A _29_:A 0
273 _46_:Q _46_:Q 0
274 *29:4 *29:6 0
275 *29:9 *29:5 0
276 _28_:A _28_:A 0
*END

*D_NET *30 0.00292868400504
*CONN
*I output4:A I
*I _28_:B I
*I _29_:B I
*I _47_:Q O
*CAP
184 *30:1 0.00011650281392
185 *30:3 0.00047016043327999994
186 _28_:B 5.034052896000001e-05
187 *30:7 0.00024891568132000004
188 *30:8 0.00046077626916000004
189 *30:6 0.00044015821855999997
190 output4:A 0.00114183005984
191 _47_:Q 0
192 *30:4 0
193 _29_:B 0
194 *30:10 0
*RES
277 *30:1 *30:2 1.2142857142857142
278 *30:3 *30:4 4.107142857142857
279 *30:3 *30:5 0.6071428571428571
280 _28_:B *30:6 0.4107142857142857
281 *30:7 *30:1 2.7321428571428568
282 *30:8 *30:9 5.160714285714286
283 *30:6 *30:10 4.517857142857142
284 output4:A *30:5 11.910714285714285
285 output4:A output4:A 0
286 _47_:Q _47_:Q 0
287 _47_:Q *30:1 0
288 *30:4 *30:2 0
289 _28_:B _28_:B 0
290 *30:6 *30:7 0
291 _29_:B _29_:B 0
292 _29_:B *30:8 0
293 *30:10 *30:9 0
*END

*D_NET *31 0.00527029710364
*CONN
*I output5:A I
*I _32_:A I
*I _33_:A1 I
*I _34_:A I
*I _36_:B1 I
*I _40_:A1 I
*I _48_:Q O
*CAP
195 output5:A 0.00125877536672
196 *31:2 0.00032321291168
197 *31:3 0.00019595053436
198 *31:5 8.932229792e-05
199 *31:6 0.00025559370522000005
200 *31:4 5.029638022e-05
201 *31:9 0.0002062676048
202 *31:10 0.00019595053436
203 _48_:Q 0.0005181217564799999
204 *31:11 0.00019595053436
205 *31:13 0.00046077626916000004
206 *31:15 0.00152007920836
207 *31:1 0
208 _34_:A 0
209 _32_:A 0
210 _36_:B1 0
211 _33_:A1 0
212 *31:12 0
213 _40_:A1 0
*RES
294 output5:A *31:1 13.142857142857142
295 *31:2 _32_:A 3.2857142857142856
296 *31:3 *31:4 2.1249999999999996
297 *31:5 _36_:B1 0.8214285714285714
298 *31:6 *31:7 2.276785714285714
299 *31:6 *31:8 0.4107142857142857
300 *31:4 *31:8 0.45535714285714285
301 *31:9 _33_:A1 2.0535714285714284
302 *31:10 *31:11 2.1249999999999996
303 _48_:Q *31:12 5.339285714285714
304 *31:11 *31:13 2.1249999999999996
305 *31:13 *31:14 5.160714285714286
306 *31:15 *31:3 17.303571428571427
307 *31:1 *31:15 0
308 output5:A output5:A 0
309 _34_:A _34_:A 0
310 _34_:A *31:3 0
311 _32_:A _32_:A 0
312 *31:2 *31:4 0
313 _36_:B1 _36_:B1 0
314 *31:5 *31:7 0
315 _33_:A1 _33_:A1 0
316 *31:9 *31:11 0
317 _36_:B1 *31:10 0
318 _48_:Q _48_:Q 0
319 *31:12 *31:13 0
320 _40_:A1 _40_:A1 0
321 _40_:A1 *31:14 0
*END

*D_NET *32 0.0029395283670000005
*CONN
*I output6:A I
*I _37_:A I
*I _39_:B1 I
*I _49_:Q O
*CAP
214 _49_:Q 5.034052896000001e-05
215 *32:2 0.0010169103122400001
216 *32:4 0.0002062676048
217 _37_:A 0.00044015821855999997
218 *32:6 4.017137184e-05
219 *32:7 0.0010963580326800002
220 *32:9 8.932229792e-05
221 *32:1 0
222 _39_:B1 0
223 output6:A 0
*RES
322 _49_:Q *32:1 0.4107142857142857
323 *32:2 *32:3 11.535714285714285
324 *32:4 _39_:B1 2.0535714285714284
325 _37_:A *32:5 4.517857142857142
326 *32:6 *32:5 0.30357142857142855
327 *32:7 *32:8 12.44642857142857
328 *32:9 _37_:A 0.8214285714285714
329 _49_:Q _49_:Q 0
330 *32:1 *32:3 0
331 *32:4 *32:2 0
332 _39_:B1 _39_:B1 0
333 _37_:A _37_:A 0
334 *32:6 *32:10 0
335 output6:A output6:A 0
336 output6:A *32:8 0
337 *32:9 *32:7 0
*END

*D_NET *33 0.00083918060158
*CONN
*P out[0] O
*I output3:X O
*CAP
224 *33:1 0.00063291299678
225 *33:3 0.0002062676048
226 output3:X 0
*RES
338 *33:1 *33:2 7.133928571428571
339 *33:3 output3:X 2.0535714285714284
340 *33:3 *33:2 0
341 output3:X output3:X 0
*END

*D_NET *34 0.00058054129944
*CONN
*P out[1] O
*I output4:X O
*CAP
227 *34:1 0.0005567274927
228 *34:3 2.3813806740000006e-05
229 output4:X 0
*RES
342 *34:1 *34:2 0.9729000000000001
343 *34:3 *34:4 0.15178571428571427
344 *34:3 *34:2 0
345 output4:X output4:X 0
346 output4:X *34:4 0
*END

*D_NET *35 0.00138492536702
*CONN
*P out[2] O
*I output5:X O
*CAP
230 *35:1 0.00063291299678
231 *35:3 0.00075201237024
232 output5:X 0
*RES
347 *35:1 *35:2 7.133928571428571
348 *35:3 output5:X 7.803571428571428
349 *35:3 *35:2 0
350 output5:X output5:X 0
*END

*D_NET *36 0.0008421489666200001
*CONN
*P out[3] O
*I output6:X O
*CAP
233 *36:1 5.034052896000001e-05
234 *36:2 0.0007918084376600001
235 output6:X 0
*RES
351 *36:1 output6:X 0.4107142857142857
352 *36:2 *36:3 8.95535714285714
353 output6:X output6:X 0
354 *36:1 *36:2 0
*END

*D_NET *37 0.00094659507802
*CONN
*P reset I
*I input1:A I
*CAP
236 *37:1 0.00012830406688
237 *37:2 0.00081829101114
238 input1:A 0
*RES
355 *37:1 input1:A 1.232142857142857
356 *37:2 *37:3 9.25892857142857
357 *37:1 *37:2 0
358 input1:A input1:A 0
*END

*D_NET *38 0.00130911859016
*CONN
*P updown I
*I input2:A I
*CAP
239 *38:1 0.0007918084376600001
240 *38:3 0.0005173101524999999
241 input2:A 0
*RES
359 *38:1 *38:2 8.95535714285714
360 *38:3 *38:4 0.9008333333333334
361 input2:A input2:A 0
362 input2:A *38:2 0
363 *38:1 *38:3 0
*END

